src/test/resources/loadflowreferences/loadflow_1888rte_standard.xiidm
<?xml version="1.0" encoding="UTF-8"?>
<iidm:network xmlns:iidm="http://www.powsybl.org/schema/iidm/1_9" xmlns:slt="http://www.powsybl.org/schema/iidm/ext/slack_terminal/1_5" id="case1888rte" caseDate="2023-03-28T16:22:01.710+02:00" forecastDistance="0" sourceFormat="MATPOWER" minimumValidationLevel="STEADY_STATE_HYPOTHESIS">
    <iidm:substation id="SUB-1">
        <iidm:voltageLevel id="VL-1" nominalV="1.0" lowVoltageLimit="0.888889" highVoltageLimit="1.08889" topologyKind="BUS_BREAKER">
            <iidm:busBreakerTopology>
                <iidm:bus id="BUS-1" v="1.0315155333763646" angle="-43.439951625590076"/>
            </iidm:busBreakerTopology>
            <iidm:load id="LOAD-1" loadType="UNDEFINED" p0="5.8" q0="-5.8" bus="BUS-1" connectableBus="BUS-1" p="5.8" q="-5.8"/>
        </iidm:voltageLevel>
    </iidm:substation>
    <iidm:substation id="SUB-2">
        <iidm:voltageLevel id="VL-2" nominalV="1.0" lowVoltageLimit="1.04841" highVoltageLimit="1.10263" topologyKind="BUS_BREAKER">
            <iidm:busBreakerTopology>
                <iidm:bus id="BUS-2" v="1.0521834166409942" angle="-1.6212571163266372"/>
            </iidm:busBreakerTopology>
        </iidm:voltageLevel>
    </iidm:substation>
    <iidm:substation id="SUB-3">
        <iidm:voltageLevel id="VL-3" nominalV="1.0" lowVoltageLimit="1.00444" highVoltageLimit="1.08444" topologyKind="BUS_BREAKER">
            <iidm:busBreakerTopology>
                <iidm:bus id="BUS-3" v="1.0449075184387826" angle="-18.256144439473225"/>
            </iidm:busBreakerTopology>
            <iidm:load id="LOAD-3" loadType="UNDEFINED" p0="142.5" q0="-13.4" bus="BUS-3" connectableBus="BUS-3" p="142.5" q="-13.4"/>
        </iidm:voltageLevel>
    </iidm:substation>
    <iidm:substation id="SUB-4">
        <iidm:voltageLevel id="VL-4" nominalV="1.0" lowVoltageLimit="1.03601" highVoltageLimit="1.08889" topologyKind="BUS_BREAKER">
            <iidm:busBreakerTopology>
                <iidm:bus id="BUS-4" v="1.064613518140954" angle="-20.552550150653143"/>
                <iidm:bus id="BUS-6" v="1.060577835615717" angle="-25.244999285702374"/>
                <iidm:bus id="BUS-1576" v="1.0637379784427847" angle="-25.91005242006939"/>
            </iidm:busBreakerTopology>
            <iidm:load id="LOAD-6" loadType="UNDEFINED" p0="40.2" q0="4.0" bus="BUS-6" connectableBus="BUS-6" p="40.2" q="4.0"/>
        </iidm:voltageLevel>
        <iidm:twoWindingsTransformer id="TWT-4-6" r="3.5560000000000005E-5" x="0.00120296" g="0.0" b="0.0" ratedU1="0.978474" ratedU2="1.0" bus1="BUS-4" connectableBus1="BUS-4" voltageLevelId1="VL-4" bus2="BUS-6" connectableBus2="BUS-6" voltageLevelId2="VL-4" p1="79.23382667943861" q1="25.706689969105707" p2="-79.02539543217728" q2="-18.655664850841312"/>
        <iidm:twoWindingsTransformer id="TWT-6-1576" r="1.8000000000000001E-6" x="-6.163E-5" g="0.0" b="0.0" ratedU1="0.999001" ratedU2="1.0" bus1="BUS-6" connectableBus1="BUS-6" voltageLevelId1="VL-4" bus2="BUS-1576" connectableBus2="BUS-1576" voltageLevelId2="VL-4" p1="-213.52616816637413" q1="28.696374155389474" p2="213.60029841374893" q2="-31.234511458561386">
            <iidm:apparentPowerLimits1 permanentLimit="1186.0">
                <iidm:temporaryLimit name="RateB" acceptableDuration="1200" value="1186.0"/>
                <iidm:temporaryLimit name="RateC" acceptableDuration="60" value="1186.0"/>
            </iidm:apparentPowerLimits1>
            <iidm:apparentPowerLimits2 permanentLimit="1186.0">
                <iidm:temporaryLimit name="RateB" acceptableDuration="1200" value="1186.0"/>
                <iidm:temporaryLimit name="RateC" acceptableDuration="60" value="1186.0"/>
            </iidm:apparentPowerLimits2>
        </iidm:twoWindingsTransformer>
    </iidm:substation>
    <iidm:substation id="SUB-5">
        <iidm:voltageLevel id="VL-5" nominalV="1.0" lowVoltageLimit="1.02519" highVoltageLimit="1.08889" topologyKind="BUS_BREAKER">
            <iidm:busBreakerTopology>
                <iidm:bus id="BUS-5" v="1.0616198778829664" angle="-24.934482871163667"/>
                <iidm:bus id="BUS-1599" v="1.0648932728384481" angle="-25.521389976154982"/>
            </iidm:busBreakerTopology>
            <iidm:load id="LOAD-5" loadType="UNDEFINED" p0="32.8" q0="-5.3" bus="BUS-5" connectableBus="BUS-5" p="32.8" q="-5.3"/>
        </iidm:voltageLevel>
        <iidm:twoWindingsTransformer id="TWT-5-1599" r="1.8000000000000001E-6" x="-6.163E-5" g="0.0" b="0.0" ratedU1="0.999001" ratedU2="1.0" bus1="BUS-5" connectableBus1="BUS-5" voltageLevelId1="VL-5" bus2="BUS-1599" connectableBus2="BUS-1599" voltageLevelId2="VL-5" p1="-189.0103705919229" q1="31.65381570593013" p2="189.06891027322152" q2="-33.65814934950575">
            <iidm:apparentPowerLimits1 permanentLimit="1188.0">
                <iidm:temporaryLimit name="RateB" acceptableDuration="1200" value="1188.0"/>
                <iidm:temporaryLimit name="RateC" acceptableDuration="60" value="1188.0"/>
            </iidm:apparentPowerLimits1>
            <iidm:apparentPowerLimits2 permanentLimit="1188.0">
                <iidm:temporaryLimit name="RateB" acceptableDuration="1200" value="1188.0"/>
                <iidm:temporaryLimit name="RateC" acceptableDuration="60" value="1188.0"/>
            </iidm:apparentPowerLimits2>
        </iidm:twoWindingsTransformer>
    </iidm:substation>
    <iidm:substation id="SUB-7">
        <iidm:voltageLevel id="VL-7" nominalV="1.0" lowVoltageLimit="1.03947" highVoltageLimit="1.10526" topologyKind="BUS_BREAKER">
            <iidm:busBreakerTopology>
                <iidm:bus id="BUS-7" v="1.0538139134243603" angle="-21.41396691237136"/>
            </iidm:busBreakerTopology>
        </iidm:voltageLevel>
    </iidm:substation>
    <iidm:substation id="SUB-8">
        <iidm:voltageLevel id="VL-8" nominalV="1.0" lowVoltageLimit="1.03947" highVoltageLimit="1.10526" topologyKind="BUS_BREAKER">
            <iidm:busBreakerTopology>
                <iidm:bus id="BUS-8" v="1.0570913173248073" angle="-22.549458927997595"/>
            </iidm:busBreakerTopology>
        </iidm:voltageLevel>
    </iidm:substation>
    <iidm:substation id="SUB-9">
        <iidm:voltageLevel id="VL-9" nominalV="1.0" lowVoltageLimit="1.00444" highVoltageLimit="1.09035" topologyKind="BUS_BREAKER">
            <iidm:busBreakerTopology>
                <iidm:bus id="BUS-9" v="1.0479086449405677" angle="-36.45994022674843"/>
            </iidm:busBreakerTopology>
        </iidm:voltageLevel>
    </iidm:substation>
    <iidm:substation id="SUB-10">
        <iidm:voltageLevel id="VL-10" nominalV="1.0" lowVoltageLimit="0.933333" highVoltageLimit="1.08889" topologyKind="BUS_BREAKER">
            <iidm:busBreakerTopology>
                <iidm:bus id="BUS-10" v="1.0443788624206245" angle="-29.169754851608012"/>
            </iidm:busBreakerTopology>
            <iidm:load id="LOAD-10" loadType="UNDEFINED" p0="148.8" q0="14.9" bus="BUS-10" connectableBus="BUS-10" p="148.8" q="14.9"/>
        </iidm:voltageLevel>
    </iidm:substation>
    <iidm:substation id="SUB-11">
        <iidm:voltageLevel id="VL-11" nominalV="1.0" lowVoltageLimit="1.00444" highVoltageLimit="1.08889" topologyKind="BUS_BREAKER">
            <iidm:busBreakerTopology>
                <iidm:bus id="BUS-11" v="1.0431936669946635" angle="-40.78625983917052"/>
            </iidm:busBreakerTopology>
            <iidm:load id="LOAD-11" loadType="UNDEFINED" p0="25.6" q0="5.0" bus="BUS-11" connectableBus="BUS-11" p="25.6" q="5.0"/>
        </iidm:voltageLevel>
    </iidm:substation>
    <iidm:substation id="SUB-12">
        <iidm:voltageLevel id="VL-12" nominalV="1.0" lowVoltageLimit="1.00444" highVoltageLimit="1.08889" topologyKind="BUS_BREAKER">
            <iidm:busBreakerTopology>
                <iidm:bus id="BUS-12" v="1.0228208422686862" angle="-40.318437658973075"/>
            </iidm:busBreakerTopology>
            <iidm:load id="LOAD-12" loadType="UNDEFINED" p0="39.1" q0="8.7" bus="BUS-12" connectableBus="BUS-12" p="39.1" q="8.7"/>
        </iidm:voltageLevel>
    </iidm:substation>
    <iidm:substation id="SUB-13">
        <iidm:voltageLevel id="VL-13" nominalV="1.0" lowVoltageLimit="1.00444" highVoltageLimit="1.08889" topologyKind="BUS_BREAKER">
            <iidm:busBreakerTopology>
                <iidm:bus id="BUS-13" v="1.04317847206542" angle="-40.78339780412189"/>
            </iidm:busBreakerTopology>
            <iidm:load id="LOAD-13" loadType="UNDEFINED" p0="70.5" q0="17.2" bus="BUS-13" connectableBus="BUS-13" p="70.5" q="17.2"/>
        </iidm:voltageLevel>
    </iidm:substation>
    <iidm:substation id="SUB-14">
        <iidm:voltageLevel id="VL-14" nominalV="1.0" lowVoltageLimit="0.95" highVoltageLimit="1.08252" topologyKind="BUS_BREAKER">
            <iidm:busBreakerTopology>
                <iidm:bus id="BUS-14" v="1.0289342835519564" angle="-42.51664096505698"/>
            </iidm:busBreakerTopology>
            <iidm:generator id="GEN-14" energySource="OTHER" minP="5.52" maxP="27.6" voltageRegulatorOn="true" targetP="2.38" targetV="1.029" targetQ="0.0" bus="BUS-14" connectableBus="BUS-14" p="-2.38" q="-0.0">
                <iidm:minMaxReactiveLimits minQ="0.0" maxQ="0.0"/>
            </iidm:generator>
            <iidm:generator id="GEN-14#0" energySource="OTHER" minP="4.8" maxP="24.0" voltageRegulatorOn="true" targetP="0.64" targetV="1.029" targetQ="0.0" bus="BUS-14" connectableBus="BUS-14" p="-0.64" q="-0.0">
                <iidm:minMaxReactiveLimits minQ="0.0" maxQ="0.0"/>
            </iidm:generator>
            <iidm:load id="LOAD-14" loadType="UNDEFINED" p0="36.0" q0="-4.2" bus="BUS-14" connectableBus="BUS-14" p="36.0" q="-4.2"/>
        </iidm:voltageLevel>
    </iidm:substation>
    <iidm:substation id="SUB-15">
        <iidm:voltageLevel id="VL-15" nominalV="1.0" lowVoltageLimit="1.00444" highVoltageLimit="1.05" topologyKind="BUS_BREAKER">
            <iidm:busBreakerTopology>
                <iidm:bus id="BUS-15" v="1.0526307299955977" angle="-32.73434299742205"/>
                <iidm:bus id="BUS-1678" v="0.957" angle="-29.141499961559557"/>
            </iidm:busBreakerTopology>
            <iidm:generator id="GEN-1678" energySource="OTHER" minP="8.5" maxP="95.0" voltageRegulatorOn="true" targetP="91.0" targetV="0.957" targetQ="-0.46" bus="BUS-1678" connectableBus="BUS-1678" p="-90.99520958131197" q="-0.8052382450647387">
                <iidm:minMaxReactiveLimits minQ="-61.4" maxQ="104.12"/>
            </iidm:generator>
            <iidm:load id="LOAD-1678" loadType="UNDEFINED" p0="3.5" q0="2.2" bus="BUS-1678" connectableBus="BUS-1678" p="3.5000000000000004" q="2.2"/>
        </iidm:voltageLevel>
        <iidm:twoWindingsTransformer id="TWT-15-1678" r="0.0" x="6.579E-4" g="0.0" b="0.0" ratedU1="1.096667" ratedU2="1.0" bus1="BUS-15" connectableBus1="BUS-15" voltageLevelId1="VL-15" bus2="BUS-1678" connectableBus2="BUS-1678" voltageLevelId2="VL-15" p1="-87.49520958129881" q1="6.89542311919134" p2="87.49520958129881" q2="-1.3947617549352613"/>
    </iidm:substation>
    <iidm:substation id="SUB-16">
        <iidm:voltageLevel id="VL-16" nominalV="1.0" lowVoltageLimit="1.00444" highVoltageLimit="1.05" topologyKind="BUS_BREAKER">
            <iidm:busBreakerTopology>
                <iidm:bus id="BUS-16" v="1.0526311313799914" angle="-32.73434581987197"/>
                <iidm:bus id="BUS-1679" v="0.957" angle="-29.141504155814147"/>
            </iidm:busBreakerTopology>
            <iidm:generator id="GEN-1679" energySource="OTHER" minP="8.5" maxP="95.0" voltageRegulatorOn="true" targetP="91.0" targetV="0.957" targetQ="-0.45" bus="BUS-1679" connectableBus="BUS-1679" p="-90.99520958131197" q="-0.8047047969601863">
                <iidm:minMaxReactiveLimits minQ="-61.58" maxQ="103.94"/>
            </iidm:generator>
            <iidm:load id="LOAD-1679" loadType="UNDEFINED" p0="3.5" q0="2.2" bus="BUS-1679" connectableBus="BUS-1679" p="3.5000000000000004" q="2.2"/>
        </iidm:voltageLevel>
        <iidm:twoWindingsTransformer id="TWT-16-1679" r="0.0" x="6.579E-4" g="0.0" b="0.0" ratedU1="1.096667" ratedU2="1.0" bus1="BUS-16" connectableBus1="BUS-16" voltageLevelId1="VL-16" bus2="BUS-1679" connectableBus2="BUS-1679" voltageLevelId2="VL-16" p1="-87.49520958129887" q1="6.895957636452617" p2="87.49520958129887" q2="-1.395295203039814"/>
    </iidm:substation>
    <iidm:substation id="SUB-17">
        <iidm:voltageLevel id="VL-17" nominalV="1.0" lowVoltageLimit="0.888889" highVoltageLimit="1.08889" topologyKind="BUS_BREAKER">
            <iidm:busBreakerTopology>
                <iidm:bus id="BUS-17" v="1.0290043954564652" angle="-42.54733471946198"/>
            </iidm:busBreakerTopology>
            <iidm:load id="LOAD-17" loadType="UNDEFINED" p0="23.7" q0="-12.4" bus="BUS-17" connectableBus="BUS-17" p="23.7" q="-12.4"/>
        </iidm:voltageLevel>
    </iidm:substation>
    <iidm:substation id="SUB-18">
        <iidm:voltageLevel id="VL-18" nominalV="1.0" lowVoltageLimit="0.986667" highVoltageLimit="1.09633" topologyKind="BUS_BREAKER">
            <iidm:busBreakerTopology>
                <iidm:bus id="BUS-18" v="1.038270006827912" angle="-34.77507278213349"/>
            </iidm:busBreakerTopology>
            <iidm:load id="LOAD-18" loadType="UNDEFINED" p0="5.9" q0="-4.8" bus="BUS-18" connectableBus="BUS-18" p="5.9" q="-4.8"/>
        </iidm:voltageLevel>
    </iidm:substation>
    <iidm:substation id="SUB-19">
        <iidm:voltageLevel id="VL-19" nominalV="1.0" lowVoltageLimit="1.00444" highVoltageLimit="1.08889" topologyKind="BUS_BREAKER">
            <iidm:busBreakerTopology>
                <iidm:bus id="BUS-19" v="1.0358915871175847" angle="-40.89652244583012"/>
            </iidm:busBreakerTopology>
            <iidm:load id="LOAD-19" loadType="UNDEFINED" p0="34.0" q0="3.7" bus="BUS-19" connectableBus="BUS-19" p="34.0" q="3.7"/>
        </iidm:voltageLevel>
    </iidm:substation>
    <iidm:substation id="SUB-20">
        <iidm:voltageLevel id="VL-20" nominalV="1.0" lowVoltageLimit="1.00444" highVoltageLimit="1.08889" topologyKind="BUS_BREAKER">
            <iidm:busBreakerTopology>
                <iidm:bus id="BUS-20" v="1.0359181970044473" angle="-40.89422377582269"/>
            </iidm:busBreakerTopology>
            <iidm:load id="LOAD-20" loadType="UNDEFINED" p0="6.9" q0="0.8" bus="BUS-20" connectableBus="BUS-20" p="6.9" q="0.8"/>
        </iidm:voltageLevel>
    </iidm:substation>
    <iidm:substation id="SUB-21">
        <iidm:voltageLevel id="VL-21" nominalV="1.0" lowVoltageLimit="1.00444" highVoltageLimit="1.08889" topologyKind="BUS_BREAKER">
            <iidm:busBreakerTopology>
                <iidm:bus id="BUS-21" v="1.0455991574081829" angle="-37.64047577431628"/>
            </iidm:busBreakerTopology>
            <iidm:load id="LOAD-21" loadType="UNDEFINED" p0="9.2" q0="-29.1" bus="BUS-21" connectableBus="BUS-21" p="9.2" q="-29.1"/>
        </iidm:voltageLevel>
    </iidm:substation>
    <iidm:substation id="SUB-22">
        <iidm:voltageLevel id="VL-22" nominalV="1.0" lowVoltageLimit="0.986667" highVoltageLimit="1.08889" topologyKind="BUS_BREAKER">
            <iidm:busBreakerTopology>
                <iidm:bus id="BUS-22" v="1.0452155405486416" angle="-37.964953491949274"/>
            </iidm:busBreakerTopology>
            <iidm:load id="LOAD-22" loadType="UNDEFINED" p0="67.7" q0="-3.6" bus="BUS-22" connectableBus="BUS-22" p="67.7" q="-3.6"/>
        </iidm:voltageLevel>
    </iidm:substation>
    <iidm:substation id="SUB-23">
        <iidm:voltageLevel id="VL-23" nominalV="1.0" lowVoltageLimit="0.888889" highVoltageLimit="1.08889" topologyKind="BUS_BREAKER">
            <iidm:busBreakerTopology>
                <iidm:bus id="BUS-23" v="1.0214756417203514" angle="-46.96924234275197"/>
            </iidm:busBreakerTopology>
            <iidm:load id="LOAD-23" loadType="UNDEFINED" p0="25.4" q0="-2.7" bus="BUS-23" connectableBus="BUS-23" p="25.4" q="-2.7"/>
        </iidm:voltageLevel>
    </iidm:substation>
    <iidm:substation id="SUB-25">
        <iidm:voltageLevel id="VL-25" nominalV="1.0" lowVoltageLimit="1.00889" highVoltageLimit="1.08444" topologyKind="BUS_BREAKER">
            <iidm:busBreakerTopology>
                <iidm:bus id="BUS-25" v="1.0545572997431465" angle="-16.43024089418773"/>
            </iidm:busBreakerTopology>
            <iidm:load id="LOAD-25" loadType="UNDEFINED" p0="64.0" q0="4.6" bus="BUS-25" connectableBus="BUS-25" p="64.0" q="4.6"/>
        </iidm:voltageLevel>
    </iidm:substation>
    <iidm:substation id="SUB-27">
        <iidm:voltageLevel id="VL-27" nominalV="1.0" lowVoltageLimit="0.933333" highVoltageLimit="1.08889" topologyKind="BUS_BREAKER">
            <iidm:busBreakerTopology>
                <iidm:bus id="BUS-27" v="1.0209708493647855" angle="-19.853676261689024"/>
            </iidm:busBreakerTopology>
            <iidm:load id="LOAD-27" loadType="UNDEFINED" p0="71.6" q0="46.7" bus="BUS-27" connectableBus="BUS-27" p="71.6" q="46.7"/>
        </iidm:voltageLevel>
    </iidm:substation>
    <iidm:substation id="SUB-28">
        <iidm:voltageLevel id="VL-28" nominalV="1.0" lowVoltageLimit="1.00444" highVoltageLimit="1.08889" topologyKind="BUS_BREAKER">
            <iidm:busBreakerTopology>
                <iidm:bus id="BUS-28" v="1.0373479900364366" angle="-35.8164644688736"/>
            </iidm:busBreakerTopology>
            <iidm:load id="LOAD-28" loadType="UNDEFINED" p0="105.4" q0="6.9" bus="BUS-28" connectableBus="BUS-28" p="105.4" q="6.9"/>
        </iidm:voltageLevel>
    </iidm:substation>
    <iidm:substation id="SUB-29">
        <iidm:voltageLevel id="VL-29" nominalV="1.0" lowVoltageLimit="1.04842" highVoltageLimit="1.05" topologyKind="BUS_BREAKER">
            <iidm:busBreakerTopology>
                <iidm:bus id="BUS-29" v="1.052149501926087" angle="-1.6076431491254635"/>
                <iidm:bus id="BUS-1628" v="0.95" angle="0.864262169263012"/>
            </iidm:busBreakerTopology>
            <iidm:generator id="GEN-1628" energySource="OTHER" minP="200.0" maxP="670.0" voltageRegulatorOn="true" targetP="200.0" targetV="0.95" targetQ="-60.27" bus="BUS-1628" connectableBus="BUS-1628" p="-200.0" q="60.25170480286099">
                <iidm:minMaxReactiveLimits minQ="-217.55" maxQ="155.3"/>
            </iidm:generator>
        </iidm:voltageLevel>
        <iidm:twoWindingsTransformer id="TWT-29-1628" r="0.0" x="1.9737000000000002E-4" g="0.0" b="0.0" ratedU1="1.092105" ratedU2="1.0" bus1="BUS-29" connectableBus1="BUS-29" voltageLevelId1="VL-29" bus2="BUS-1628" connectableBus2="BUS-1628" voltageLevelId2="VL-29" p1="-199.99999637402527" q1="69.7933177617595" p2="199.99999637402524" q2="-60.25170480286099">
            <iidm:apparentPowerLimits1 permanentLimit="254.0">
                <iidm:temporaryLimit name="RateB" acceptableDuration="1200" value="254.0"/>
                <iidm:temporaryLimit name="RateC" acceptableDuration="60" value="254.0"/>
            </iidm:apparentPowerLimits1>
            <iidm:apparentPowerLimits2 permanentLimit="254.0">
                <iidm:temporaryLimit name="RateB" acceptableDuration="1200" value="254.0"/>
                <iidm:temporaryLimit name="RateC" acceptableDuration="60" value="254.0"/>
            </iidm:apparentPowerLimits2>
        </iidm:twoWindingsTransformer>
    </iidm:substation>
    <iidm:substation id="SUB-30">
        <iidm:voltageLevel id="VL-30" nominalV="1.0" lowVoltageLimit="1.04842" highVoltageLimit="1.05" topologyKind="BUS_BREAKER">
            <iidm:busBreakerTopology>
                <iidm:bus id="BUS-30" v="1.052178256417443" angle="-1.5912784491587437"/>
                <iidm:bus id="BUS-1629" v="0.95" angle="3.9773286084076065"/>
            </iidm:busBreakerTopology>
            <iidm:generator id="GEN-1629" energySource="OTHER" minP="140.0" maxP="700.0" voltageRegulatorOn="true" targetP="450.03" targetV="0.95" targetQ="-42.82" bus="BUS-1629" connectableBus="BUS-1629" p="-449.9947021780882" q="42.80855329751745">
                <iidm:minMaxReactiveLimits minQ="-190.58" maxQ="231.39"/>
            </iidm:generator>
        </iidm:voltageLevel>
        <iidm:twoWindingsTransformer id="TWT-30-1629" r="0.0" x="1.9737000000000002E-4" g="0.0" b="0.0" ratedU1="1.092105" ratedU2="1.0" bus1="BUS-30" connectableBus1="BUS-30" voltageLevelId1="VL-30" bus2="BUS-1629" connectableBus2="BUS-1629" voltageLevelId2="VL-30" p1="-449.9946939891384" q1="87.49351425600491" p2="449.9946939891384" q2="-42.80855329751745">
            <iidm:apparentPowerLimits1 permanentLimit="550.0">
                <iidm:temporaryLimit name="RateB" acceptableDuration="1200" value="550.0"/>
                <iidm:temporaryLimit name="RateC" acceptableDuration="60" value="550.0"/>
            </iidm:apparentPowerLimits1>
            <iidm:apparentPowerLimits2 permanentLimit="550.0">
                <iidm:temporaryLimit name="RateB" acceptableDuration="1200" value="550.0"/>
                <iidm:temporaryLimit name="RateC" acceptableDuration="60" value="550.0"/>
            </iidm:apparentPowerLimits2>
        </iidm:twoWindingsTransformer>
    </iidm:substation>
    <iidm:substation id="SUB-31">
        <iidm:voltageLevel id="VL-31" nominalV="1.0" lowVoltageLimit="1.00889" highVoltageLimit="1.08444" topologyKind="BUS_BREAKER">
            <iidm:busBreakerTopology>
                <iidm:bus id="BUS-31" v="1.048958490087021" angle="-4.989280256816209"/>
            </iidm:busBreakerTopology>
            <iidm:load id="LOAD-31" loadType="UNDEFINED" p0="21.7" q0="0.9" bus="BUS-31" connectableBus="BUS-31" p="21.7" q="0.9"/>
        </iidm:voltageLevel>
    </iidm:substation>
    <iidm:substation id="SUB-33">
        <iidm:voltageLevel id="VL-33" nominalV="1.0" lowVoltageLimit="1.00889" highVoltageLimit="1.08444" topologyKind="BUS_BREAKER">
            <iidm:busBreakerTopology>
                <iidm:bus id="BUS-33" v="1.0330138617169518" angle="-5.5859454550467404"/>
            </iidm:busBreakerTopology>
            <iidm:load id="LOAD-33" loadType="UNDEFINED" p0="68.9" q0="2.6" bus="BUS-33" connectableBus="BUS-33" p="68.9" q="2.6"/>
        </iidm:voltageLevel>
    </iidm:substation>
    <iidm:substation id="SUB-34">
        <iidm:voltageLevel id="VL-34" nominalV="1.0" lowVoltageLimit="1.00444" highVoltageLimit="1.08889" topologyKind="BUS_BREAKER">
            <iidm:busBreakerTopology>
                <iidm:bus id="BUS-34" v="1.0430836708098892" angle="-40.7007701821219"/>
            </iidm:busBreakerTopology>
            <iidm:load id="LOAD-34" loadType="UNDEFINED" p0="50.6" q0="12.7" bus="BUS-34" connectableBus="BUS-34" p="50.6" q="12.7"/>
        </iidm:voltageLevel>
    </iidm:substation>
    <iidm:substation id="SUB-35">
        <iidm:voltageLevel id="VL-35" nominalV="1.0" lowVoltageLimit="0.966667" highVoltageLimit="1.08" topologyKind="BUS_BREAKER">
            <iidm:busBreakerTopology>
                <iidm:bus id="BUS-35" v="1.0232224695630983" angle="-21.673346157118416"/>
            </iidm:busBreakerTopology>
            <iidm:load id="LOAD-35" loadType="UNDEFINED" p0="17.0" q0="2.1" bus="BUS-35" connectableBus="BUS-35" p="17.0" q="2.1"/>
        </iidm:voltageLevel>
    </iidm:substation>
    <iidm:substation id="SUB-36">
        <iidm:voltageLevel id="VL-36" nominalV="1.0" lowVoltageLimit="1.04785" highVoltageLimit="1.09212" topologyKind="BUS_BREAKER">
            <iidm:busBreakerTopology>
                <iidm:bus id="BUS-36" v="1.0625285583096729" angle="-30.7178464541224"/>
                <iidm:bus id="BUS-37" v="1.0700224042053665" angle="-28.29054403423641"/>
            </iidm:busBreakerTopology>
            <iidm:load id="LOAD-36" loadType="UNDEFINED" p0="38.2" q0="6.3" bus="BUS-36" connectableBus="BUS-36" p="38.2" q="6.3"/>
        </iidm:voltageLevel>
        <iidm:twoWindingsTransformer id="TWT-36-37" r="3.32E-6" x="2.5E-4" g="0.0" b="0.0" ratedU1="1.001" ratedU2="1.0" bus1="BUS-36" connectableBus1="BUS-36" voltageLevelId1="VL-36" bus2="BUS-37" connectableBus2="BUS-37" voltageLevelId2="VL-36" p1="-192.8056286522856" q1="-29.687966317402832" p2="192.9177636411276" q2="38.131866079603626">
            <iidm:apparentPowerLimits1 permanentLimit="1187.0">
                <iidm:temporaryLimit name="RateB" acceptableDuration="1200" value="1187.0"/>
                <iidm:temporaryLimit name="RateC" acceptableDuration="60" value="1187.0"/>
            </iidm:apparentPowerLimits1>
            <iidm:apparentPowerLimits2 permanentLimit="1187.0">
                <iidm:temporaryLimit name="RateB" acceptableDuration="1200" value="1187.0"/>
                <iidm:temporaryLimit name="RateC" acceptableDuration="60" value="1187.0"/>
            </iidm:apparentPowerLimits2>
        </iidm:twoWindingsTransformer>
    </iidm:substation>
    <iidm:substation id="SUB-38">
        <iidm:voltageLevel id="VL-38" nominalV="1.0" lowVoltageLimit="0.986667" highVoltageLimit="1.08889" topologyKind="BUS_BREAKER">
            <iidm:busBreakerTopology>
                <iidm:bus id="BUS-38" v="1.043843950551148" angle="-38.11236610264309"/>
            </iidm:busBreakerTopology>
            <iidm:load id="LOAD-38" loadType="UNDEFINED" p0="89.0" q0="9.6" bus="BUS-38" connectableBus="BUS-38" p="89.0" q="9.6"/>
        </iidm:voltageLevel>
    </iidm:substation>
    <iidm:substation id="SUB-39">
        <iidm:voltageLevel id="VL-39" nominalV="1.0" lowVoltageLimit="1.02632" highVoltageLimit="1.08889" topologyKind="BUS_BREAKER">
            <iidm:busBreakerTopology>
                <iidm:bus id="BUS-2050" v="1.0250379357658639" angle="-43.09647317206334"/>
                <iidm:bus id="BUS-39" v="1.0289372814004414" angle="-42.2734251033593"/>
                <iidm:bus id="BUS-1551" v="1.0342004152574922" angle="-43.16469533344282"/>
                <iidm:bus id="BUS-1600" v="1.0286816379536068" angle="-43.23547336157762"/>
            </iidm:busBreakerTopology>
            <iidm:load id="LOAD-39" loadType="UNDEFINED" p0="70.9" q0="-2.3" bus="BUS-39" connectableBus="BUS-39" p="70.9" q="-2.3"/>
            <iidm:shunt id="SHUNT-2050" sectionCount="1" voltageRegulatorOn="false" bus="BUS-2050" connectableBus="BUS-2050" p="0.0" q="67.24497726458517">
                <iidm:shuntLinearModel bPerSection="-64.0" maximumSectionCount="1"/>
            </iidm:shunt>
        </iidm:voltageLevel>
        <iidm:twoWindingsTransformer id="TWT-2050-1551" r="1.787E-5" x="8.469500000000001E-4" g="0.0" b="0.0" ratedU1="1.05042" ratedU2="1.0" bus1="BUS-2050" connectableBus1="BUS-2050" voltageLevelId1="VL-39" bus2="BUS-1551" connectableBus2="BUS-1551" voltageLevelId2="VL-39" p1="-1.1646505885327936E-13" q1="-67.24497726458516" p2="0.08485752130407262" q2="71.26680589739632"/>
        <iidm:twoWindingsTransformer id="TWT-39-1551" r="1.45E-6" x="-6.302E-5" g="0.0" b="0.0" ratedU1="1.0" ratedU2="1.0" bus1="BUS-39" connectableBus1="BUS-39" voltageLevelId1="VL-39" bus2="BUS-1551" connectableBus2="BUS-1551" voltageLevelId2="VL-39" p1="-264.4444423665549" q1="77.80459833747774" p2="264.5485097752469" q2="-82.32758323079732">
            <iidm:apparentPowerLimits1 permanentLimit="1186.0">
                <iidm:temporaryLimit name="RateB" acceptableDuration="1200" value="1186.0"/>
                <iidm:temporaryLimit name="RateC" acceptableDuration="60" value="1186.0"/>
            </iidm:apparentPowerLimits1>
            <iidm:apparentPowerLimits2 permanentLimit="1186.0">
                <iidm:temporaryLimit name="RateB" acceptableDuration="1200" value="1186.0"/>
                <iidm:temporaryLimit name="RateC" acceptableDuration="60" value="1186.0"/>
            </iidm:apparentPowerLimits2>
        </iidm:twoWindingsTransformer>
        <iidm:twoWindingsTransformer id="TWT-39-1600" r="1.25E-6" x="-6.787E-5" g="0.0" b="0.0" ratedU1="1.0" ratedU2="1.0" bus1="BUS-39" connectableBus1="BUS-39" voltageLevelId1="VL-39" bus2="BUS-1600" connectableBus2="BUS-1600" voltageLevelId2="VL-39" p1="-261.64532860074445" q1="-10.892897237423004" p2="261.726296014189" q2="6.496690556659078">
            <iidm:apparentPowerLimits1 permanentLimit="1187.0">
                <iidm:temporaryLimit name="RateB" acceptableDuration="1200" value="1187.0"/>
                <iidm:temporaryLimit name="RateC" acceptableDuration="60" value="1187.0"/>
            </iidm:apparentPowerLimits1>
            <iidm:apparentPowerLimits2 permanentLimit="1187.0">
                <iidm:temporaryLimit name="RateB" acceptableDuration="1200" value="1187.0"/>
                <iidm:temporaryLimit name="RateC" acceptableDuration="60" value="1187.0"/>
            </iidm:apparentPowerLimits2>
        </iidm:twoWindingsTransformer>
    </iidm:substation>
    <iidm:substation id="SUB-40">
        <iidm:voltageLevel id="VL-40" nominalV="1.0" lowVoltageLimit="1.0" highVoltageLimit="1.10526" topologyKind="BUS_BREAKER">
            <iidm:busBreakerTopology>
                <iidm:bus id="BUS-40" v="1.034456207360391" angle="-38.722781631351594"/>
            </iidm:busBreakerTopology>
            <iidm:load id="LOAD-40" loadType="UNDEFINED" p0="136.2" q0="-10.7" bus="BUS-40" connectableBus="BUS-40" p="136.2" q="-10.7"/>
        </iidm:voltageLevel>
    </iidm:substation>
    <iidm:substation id="SUB-41">
        <iidm:voltageLevel id="VL-41" nominalV="1.0" lowVoltageLimit="0.933333" highVoltageLimit="1.08889" topologyKind="BUS_BREAKER">
            <iidm:busBreakerTopology>
                <iidm:bus id="BUS-41" v="1.041651381778335" angle="-27.282964735335067"/>
            </iidm:busBreakerTopology>
            <iidm:load id="LOAD-41" loadType="UNDEFINED" p0="64.6" q0="17.3" bus="BUS-41" connectableBus="BUS-41" p="64.6" q="17.3"/>
        </iidm:voltageLevel>
    </iidm:substation>
    <iidm:substation id="SUB-42">
        <iidm:voltageLevel id="VL-42" nominalV="1.0" lowVoltageLimit="0.888889" highVoltageLimit="1.08889" topologyKind="BUS_BREAKER">
            <iidm:busBreakerTopology>
                <iidm:bus id="BUS-42" v="1.0267759342480645" angle="-46.732987096661724"/>
            </iidm:busBreakerTopology>
            <iidm:load id="LOAD-42" loadType="UNDEFINED" p0="13.4" q0="3.3" bus="BUS-42" connectableBus="BUS-42" p="13.4" q="3.3"/>
        </iidm:voltageLevel>
    </iidm:substation>
    <iidm:substation id="SUB-43">
        <iidm:voltageLevel id="VL-43" nominalV="1.0" lowVoltageLimit="0.888889" highVoltageLimit="1.08889" topologyKind="BUS_BREAKER">
            <iidm:busBreakerTopology>
                <iidm:bus id="BUS-43" v="1.0266015841201654" angle="-46.7771081452579"/>
            </iidm:busBreakerTopology>
            <iidm:load id="LOAD-43" loadType="UNDEFINED" p0="33.3" q0="4.7" bus="BUS-43" connectableBus="BUS-43" p="33.3" q="4.7"/>
        </iidm:voltageLevel>
    </iidm:substation>
    <iidm:substation id="SUB-44">
        <iidm:voltageLevel id="VL-44" nominalV="1.0" lowVoltageLimit="1.00444" highVoltageLimit="1.08496" topologyKind="BUS_BREAKER">
            <iidm:busBreakerTopology>
                <iidm:bus id="BUS-44" v="1.0549455194044648" angle="-26.1191289311778"/>
            </iidm:busBreakerTopology>
            <iidm:load id="LOAD-44" loadType="UNDEFINED" p0="211.6" q0="-1.3" bus="BUS-44" connectableBus="BUS-44" p="211.60000000000002" q="-1.3"/>
        </iidm:voltageLevel>
    </iidm:substation>
    <iidm:substation id="SUB-45">
        <iidm:voltageLevel id="VL-45" nominalV="1.0" lowVoltageLimit="1.00444" highVoltageLimit="1.08889" topologyKind="BUS_BREAKER">
            <iidm:busBreakerTopology>
                <iidm:bus id="BUS-45" v="1.0480852007288897" angle="-38.841233708206666"/>
            </iidm:busBreakerTopology>
            <iidm:load id="LOAD-45" loadType="UNDEFINED" p0="92.1" q0="-9.1" bus="BUS-45" connectableBus="BUS-45" p="92.1" q="-9.1"/>
        </iidm:voltageLevel>
    </iidm:substation>
    <iidm:substation id="SUB-46">
        <iidm:voltageLevel id="VL-46" nominalV="1.0" lowVoltageLimit="0.9" highVoltageLimit="1.10843" topologyKind="BUS_BREAKER">
            <iidm:busBreakerTopology>
                <iidm:bus id="BUS-46" v="1.04350666240031" angle="-7.769351059361939"/>
            </iidm:busBreakerTopology>
            <iidm:generator id="GEN-46" energySource="OTHER" minP="6.0" maxP="30.0" voltageRegulatorOn="true" targetP="28.0" targetV="1.038" targetQ="-4.0" bus="BUS-46" connectableBus="BUS-46" p="-27.998487236203783" q="4.0">
                <iidm:minMaxReactiveLimits minQ="-4.0" maxQ="10.0"/>
            </iidm:generator>
        </iidm:voltageLevel>
    </iidm:substation>
    <iidm:substation id="SUB-47">
        <iidm:voltageLevel id="VL-47" nominalV="1.0" lowVoltageLimit="1.00444" highVoltageLimit="1.08889" topologyKind="BUS_BREAKER">
            <iidm:busBreakerTopology>
                <iidm:bus id="BUS-47" v="1.026375375320568" angle="-41.24260930041235"/>
            </iidm:busBreakerTopology>
        </iidm:voltageLevel>
    </iidm:substation>
    <iidm:substation id="SUB-48">
        <iidm:voltageLevel id="VL-48" nominalV="1.0" lowVoltageLimit="1.00444" highVoltageLimit="1.08889" topologyKind="BUS_BREAKER">
            <iidm:busBreakerTopology>
                <iidm:bus id="BUS-48" v="1.0263751619368748" angle="-41.24260809719785"/>
            </iidm:busBreakerTopology>
        </iidm:voltageLevel>
    </iidm:substation>
    <iidm:substation id="SUB-49">
        <iidm:voltageLevel id="VL-49" nominalV="1.0" lowVoltageLimit="1.00444" highVoltageLimit="1.08889" topologyKind="BUS_BREAKER">
            <iidm:busBreakerTopology>
                <iidm:bus id="BUS-49" v="1.0263739324420758" angle="-41.24260116440022"/>
            </iidm:busBreakerTopology>
            <iidm:load id="LOAD-49" loadType="UNDEFINED" p0="63.7" q0="84.5" bus="BUS-49" connectableBus="BUS-49" p="63.7" q="84.5"/>
            <iidm:shunt id="SHUNT-49" sectionCount="1" voltageRegulatorOn="false" bus="BUS-49" connectableBus="BUS-49" p="0.0" q="84.27547593572885">
                <iidm:shuntLinearModel bPerSection="-80.0" maximumSectionCount="1"/>
            </iidm:shunt>
        </iidm:voltageLevel>
    </iidm:substation>
    <iidm:substation id="SUB-50">
        <iidm:voltageLevel id="VL-50" nominalV="1.0" lowVoltageLimit="1.00444" highVoltageLimit="1.08889" topologyKind="BUS_BREAKER">
            <iidm:busBreakerTopology>
                <iidm:bus id="BUS-50" v="1.0364353633050707" angle="-36.15876067132"/>
            </iidm:busBreakerTopology>
            <iidm:load id="LOAD-50" loadType="UNDEFINED" p0="10.4" q0="6.6" bus="BUS-50" connectableBus="BUS-50" p="10.4" q="6.6"/>
        </iidm:voltageLevel>
    </iidm:substation>
    <iidm:substation id="SUB-51">
        <iidm:voltageLevel id="VL-51" nominalV="1.0" lowVoltageLimit="1.0" highVoltageLimit="1.08889" topologyKind="BUS_BREAKER">
            <iidm:busBreakerTopology>
                <iidm:bus id="BUS-51" v="1.0561400919517037" angle="-17.397508445254044"/>
                <iidm:bus id="BUS-1844" v="0.9079233459927646" angle="-8.578404427585664"/>
            </iidm:busBreakerTopology>
            <iidm:generator id="GEN-1844" energySource="OTHER" minP="5.4" maxP="27.0" voltageRegulatorOn="true" targetP="26.0" targetV="0.885" targetQ="-13.69" bus="BUS-1844" connectableBus="BUS-1844" p="-25.998638512583405" q="15.380000000000003">
                <iidm:minMaxReactiveLimits minQ="-15.38" maxQ="24.62"/>
            </iidm:generator>
        </iidm:voltageLevel>
        <iidm:twoWindingsTransformer id="TWT-51-1844" r="0.0" x="0.0054184" g="0.0" b="0.0" ratedU1="1.044444" ratedU2="1.0" bus1="BUS-51" connectableBus1="BUS-51" voltageLevelId1="VL-51" bus2="BUS-1844" connectableBus2="BUS-1844" voltageLevelId2="VL-51" p1="-25.977662792538787" q1="21.276733657395635" p2="25.977662792538787" q2="-15.30184730894176"/>
    </iidm:substation>
    <iidm:substation id="SUB-52">
        <iidm:voltageLevel id="VL-52" nominalV="1.0" lowVoltageLimit="0.888889" highVoltageLimit="1.08889" topologyKind="BUS_BREAKER">
            <iidm:busBreakerTopology>
                <iidm:bus id="BUS-52" v="1.0190586155306647" angle="-46.95330849101182"/>
            </iidm:busBreakerTopology>
            <iidm:load id="LOAD-52" loadType="UNDEFINED" p0="68.7" q0="16.5" bus="BUS-52" connectableBus="BUS-52" p="68.7" q="16.5"/>
        </iidm:voltageLevel>
    </iidm:substation>
    <iidm:substation id="SUB-53">
        <iidm:voltageLevel id="VL-53" nominalV="1.0" lowVoltageLimit="1.0" highVoltageLimit="1.08889" topologyKind="BUS_BREAKER">
            <iidm:busBreakerTopology>
                <iidm:bus id="BUS-53" v="1.01032978844083" angle="-45.33475216082896"/>
                <iidm:bus id="BUS-54" v="1.0136944249707418" angle="-43.24139992471698"/>
            </iidm:busBreakerTopology>
            <iidm:load id="LOAD-53" loadType="UNDEFINED" p0="101.2" q0="15.9" bus="BUS-53" connectableBus="BUS-53" p="101.2" q="15.9"/>
        </iidm:voltageLevel>
        <iidm:twoWindingsTransformer id="TWT-53-54" r="6.65E-6" x="4.8338E-4" g="0.0" b="0.0" ratedU1="0.996016" ratedU2="1.0" bus1="BUS-53" connectableBus1="BUS-53" voltageLevelId1="VL-53" bus2="BUS-54" connectableBus2="BUS-54" voltageLevelId2="VL-53" p1="-77.64932744606563" q1="3.9077577240786208" p2="77.68839371124831" q2="-1.0680808422435928">
            <iidm:apparentPowerLimits1 permanentLimit="606.0">
                <iidm:temporaryLimit name="RateB" acceptableDuration="1200" value="606.0"/>
                <iidm:temporaryLimit name="RateC" acceptableDuration="60" value="606.0"/>
            </iidm:apparentPowerLimits1>
            <iidm:apparentPowerLimits2 permanentLimit="606.0">
                <iidm:temporaryLimit name="RateB" acceptableDuration="1200" value="606.0"/>
                <iidm:temporaryLimit name="RateC" acceptableDuration="60" value="606.0"/>
            </iidm:apparentPowerLimits2>
        </iidm:twoWindingsTransformer>
        <iidm:twoWindingsTransformer id="TWT-53-54#0" r="7.83E-6" x="3.9612E-4" g="0.0" b="0.0" ratedU1="0.996016" ratedU2="1.0" bus1="BUS-53" connectableBus1="BUS-53" voltageLevelId1="VL-53" bus2="BUS-54" connectableBus2="BUS-54" voltageLevelId2="VL-53" p1="-94.71455132772081" q1="5.337218110786127" p2="94.7830336306698" q2="-1.8726957807532376">
            <iidm:apparentPowerLimits1 permanentLimit="606.0">
                <iidm:temporaryLimit name="RateB" acceptableDuration="1200" value="606.0"/>
                <iidm:temporaryLimit name="RateC" acceptableDuration="60" value="606.0"/>
            </iidm:apparentPowerLimits1>
            <iidm:apparentPowerLimits2 permanentLimit="606.0">
                <iidm:temporaryLimit name="RateB" acceptableDuration="1200" value="606.0"/>
                <iidm:temporaryLimit name="RateC" acceptableDuration="60" value="606.0"/>
            </iidm:apparentPowerLimits2>
        </iidm:twoWindingsTransformer>
    </iidm:substation>
    <iidm:substation id="SUB-55">
        <iidm:voltageLevel id="VL-55" nominalV="1.0" lowVoltageLimit="1.00889" highVoltageLimit="1.08444" topologyKind="BUS_BREAKER">
            <iidm:busBreakerTopology>
                <iidm:bus id="BUS-55" v="1.0272897442437117" angle="-4.995927586860047"/>
            </iidm:busBreakerTopology>
            <iidm:load id="LOAD-55" loadType="UNDEFINED" p0="28.9" q0="10.6" bus="BUS-55" connectableBus="BUS-55" p="28.9" q="10.6"/>
        </iidm:voltageLevel>
    </iidm:substation>
    <iidm:substation id="SUB-56">
        <iidm:voltageLevel id="VL-56" nominalV="1.0" lowVoltageLimit="1.00889" highVoltageLimit="1.08444" topologyKind="BUS_BREAKER">
            <iidm:busBreakerTopology>
                <iidm:bus id="BUS-56" v="1.0274794649938552" angle="-4.997344693891223"/>
            </iidm:busBreakerTopology>
            <iidm:load id="LOAD-56" loadType="UNDEFINED" p0="28.2" q0="2.1" bus="BUS-56" connectableBus="BUS-56" p="28.199999999999996" q="2.1"/>
        </iidm:voltageLevel>
    </iidm:substation>
    <iidm:substation id="SUB-1827">
        <iidm:voltageLevel id="VL-1827" nominalV="1.0" lowVoltageLimit="1.00444" highVoltageLimit="1.08889" topologyKind="BUS_BREAKER">
            <iidm:busBreakerTopology>
                <iidm:bus id="BUS-1827" v="1.0422990238386072" angle="-34.46894748927133"/>
            </iidm:busBreakerTopology>
            <iidm:load id="LOAD-1827" loadType="UNDEFINED" p0="109.6" q0="-12.9" bus="BUS-1827" connectableBus="BUS-1827" p="109.59999999999998" q="-12.9"/>
        </iidm:voltageLevel>
    </iidm:substation>
    <iidm:substation id="SUB-57">
        <iidm:voltageLevel id="VL-57" nominalV="1.0" lowVoltageLimit="0.933333" highVoltageLimit="1.08945" topologyKind="BUS_BREAKER">
            <iidm:busBreakerTopology>
                <iidm:bus id="BUS-57" v="1.0537281494693924" angle="-20.321775184736055"/>
            </iidm:busBreakerTopology>
            <iidm:load id="LOAD-57" loadType="UNDEFINED" p0="27.3" q0="-10.9" bus="BUS-57" connectableBus="BUS-57" p="27.3" q="-10.9"/>
        </iidm:voltageLevel>
    </iidm:substation>
    <iidm:substation id="SUB-58">
        <iidm:voltageLevel id="VL-58" nominalV="1.0" lowVoltageLimit="0.9" highVoltageLimit="1.10862" topologyKind="BUS_BREAKER">
            <iidm:busBreakerTopology>
                <iidm:bus id="BUS-58" v="1.0422085807050632" angle="-7.981351004002529"/>
            </iidm:busBreakerTopology>
            <iidm:generator id="GEN-58" energySource="OTHER" minP="1.2" maxP="6.0" voltageRegulatorOn="true" targetP="0.0" targetV="1.037" targetQ="0.0" connectableBus="BUS-58">
                <iidm:minMaxReactiveLimits minQ="1.9" maxQ="2.0"/>
            </iidm:generator>
        </iidm:voltageLevel>
    </iidm:substation>
    <iidm:substation id="SUB-59">
        <iidm:voltageLevel id="VL-59" nominalV="1.0" lowVoltageLimit="1.00889" highVoltageLimit="1.08444" topologyKind="BUS_BREAKER">
            <iidm:busBreakerTopology>
                <iidm:bus id="BUS-59" v="1.0234733549661181" angle="-1.8819625238032938"/>
            </iidm:busBreakerTopology>
            <iidm:load id="LOAD-59" loadType="UNDEFINED" p0="36.8" q0="20.3" bus="BUS-59" connectableBus="BUS-59" p="36.8" q="20.3"/>
        </iidm:voltageLevel>
    </iidm:substation>
    <iidm:substation id="SUB-60">
        <iidm:voltageLevel id="VL-60" nominalV="1.0" lowVoltageLimit="1.00889" highVoltageLimit="1.08444" topologyKind="BUS_BREAKER">
            <iidm:busBreakerTopology>
                <iidm:bus id="BUS-60" v="1.0233019423924037" angle="-1.8798777098695882"/>
            </iidm:busBreakerTopology>
            <iidm:load id="LOAD-60" loadType="UNDEFINED" p0="36.5" q0="30.8" bus="BUS-60" connectableBus="BUS-60" p="36.5" q="30.8"/>
        </iidm:voltageLevel>
    </iidm:substation>
    <iidm:substation id="SUB-61">
        <iidm:voltageLevel id="VL-61" nominalV="1.0" lowVoltageLimit="0.977778" highVoltageLimit="1.05" topologyKind="BUS_BREAKER">
            <iidm:busBreakerTopology>
                <iidm:bus id="BUS-61" v="1.025275192849696" angle="-2.7142896851771106"/>
                <iidm:bus id="BUS-1630" v="0.928" angle="5.244483051838848"/>
                <iidm:bus id="BUS-1631" v="0.93" angle="-1.2802287876196896"/>
            </iidm:busBreakerTopology>
            <iidm:generator id="GEN-1630" energySource="OTHER" minP="17.2" maxP="86.0" voltageRegulatorOn="true" targetP="83.0" targetV="0.928" targetQ="8.77" bus="BUS-1630" connectableBus="BUS-1630" p="-82.99566341045083" q="-9.185471767820822">
                <iidm:minMaxReactiveLimits minQ="-8.5" maxQ="43.86"/>
            </iidm:generator>
            <iidm:generator id="GEN-1631" energySource="OTHER" minP="9.8" maxP="49.0" voltageRegulatorOn="true" targetP="9.8" targetV="0.93" targetQ="3.09" bus="BUS-1631" connectableBus="BUS-1631" p="-9.8" q="-3.2002708848778294">
                <iidm:minMaxReactiveLimits minQ="-9.73" maxQ="22.19"/>
            </iidm:generator>
        </iidm:voltageLevel>
        <iidm:twoWindingsTransformer id="TWT-61-1630" r="0.0" x="0.00142857" g="0.0" b="0.0" ratedU1="1.111111" ratedU2="1.0" bus1="BUS-61" connectableBus1="BUS-61" voltageLevelId1="VL-61" bus2="BUS-1630" connectableBus2="BUS-1630" voltageLevelId2="VL-61" p1="-82.9956630928781" q1="2.3810725166775235" p2="82.99566309287812" q2="9.185471767820822"/>
        <iidm:twoWindingsTransformer id="TWT-61-1631" r="0.0" x="0.0021914900000000004" g="0.0" b="0.0" ratedU1="1.111111" ratedU2="1.0" bus1="BUS-61" connectableBus1="BUS-61" voltageLevelId1="VL-61" bus2="BUS-1631" connectableBus2="BUS-1631" voltageLevelId2="VL-61" p1="-9.79999996285285" q1="-2.930973445785696" p2="9.79999996285285" q2="3.2002708848778294"/>
    </iidm:substation>
    <iidm:substation id="SUB-62">
        <iidm:voltageLevel id="VL-62" nominalV="1.0" lowVoltageLimit="0.888889" highVoltageLimit="1.08889" topologyKind="BUS_BREAKER">
            <iidm:busBreakerTopology>
                <iidm:bus id="BUS-62" v="1.0283867707826717" angle="-44.82235945937672"/>
            </iidm:busBreakerTopology>
            <iidm:load id="LOAD-62" loadType="UNDEFINED" p0="8.4" q0="-0.3" bus="BUS-62" connectableBus="BUS-62" p="8.4" q="-0.3"/>
        </iidm:voltageLevel>
    </iidm:substation>
    <iidm:substation id="SUB-63">
        <iidm:voltageLevel id="VL-63" nominalV="1.0" lowVoltageLimit="0.933333" highVoltageLimit="1.08889" topologyKind="BUS_BREAKER">
            <iidm:busBreakerTopology>
                <iidm:bus id="BUS-63" v="1.0674718060896924" angle="-26.389627206792564"/>
            </iidm:busBreakerTopology>
            <iidm:load id="LOAD-63" loadType="UNDEFINED" p0="13.2" q0="-6.3" bus="BUS-63" connectableBus="BUS-63" p="13.200000000000001" q="-6.3"/>
        </iidm:voltageLevel>
    </iidm:substation>
    <iidm:substation id="SUB-64">
        <iidm:voltageLevel id="VL-64" nominalV="1.0" lowVoltageLimit="1.00444" highVoltageLimit="1.08889" topologyKind="BUS_BREAKER">
            <iidm:busBreakerTopology>
                <iidm:bus id="BUS-64" v="1.0223668516486715" angle="-40.455438964246255"/>
            </iidm:busBreakerTopology>
            <iidm:load id="LOAD-64" loadType="UNDEFINED" p0="13.2" q0="3.3" bus="BUS-64" connectableBus="BUS-64" p="13.200000000000001" q="3.3"/>
        </iidm:voltageLevel>
    </iidm:substation>
    <iidm:substation id="SUB-65">
        <iidm:voltageLevel id="VL-65" nominalV="1.0" lowVoltageLimit="1.00444" highVoltageLimit="1.08889" topologyKind="BUS_BREAKER">
            <iidm:busBreakerTopology>
                <iidm:bus id="BUS-65" v="1.0480193843452394" angle="-36.5101314880343"/>
            </iidm:busBreakerTopology>
            <iidm:load id="LOAD-65" loadType="UNDEFINED" p0="22.7" q0="2.5" bus="BUS-65" connectableBus="BUS-65" p="22.7" q="2.5"/>
        </iidm:voltageLevel>
    </iidm:substation>
    <iidm:substation id="SUB-66">
        <iidm:voltageLevel id="VL-66" nominalV="1.0" lowVoltageLimit="1.0" highVoltageLimit="1.08889" topologyKind="BUS_BREAKER">
            <iidm:busBreakerTopology>
                <iidm:bus id="BUS-66" v="1.0585359917424229" angle="-17.6659084287614"/>
            </iidm:busBreakerTopology>
            <iidm:load id="LOAD-66" loadType="UNDEFINED" p0="11.4" q0="-9.7" bus="BUS-66" connectableBus="BUS-66" p="11.4" q="-9.7"/>
        </iidm:voltageLevel>
    </iidm:substation>
    <iidm:substation id="SUB-67">
        <iidm:voltageLevel id="VL-67" nominalV="1.0" lowVoltageLimit="0.986667" highVoltageLimit="1.08889" topologyKind="BUS_BREAKER">
            <iidm:busBreakerTopology>
                <iidm:bus id="BUS-67" v="1.038903246245873" angle="-32.65963919192696"/>
            </iidm:busBreakerTopology>
            <iidm:load id="LOAD-67" loadType="UNDEFINED" p0="10.2" q0="-1.3" bus="BUS-67" connectableBus="BUS-67" p="10.2" q="-1.3"/>
        </iidm:voltageLevel>
    </iidm:substation>
    <iidm:substation id="SUB-68">
        <iidm:voltageLevel id="VL-68" nominalV="1.0" lowVoltageLimit="1.01316" highVoltageLimit="1.08889" topologyKind="BUS_BREAKER">
            <iidm:busBreakerTopology>
                <iidm:bus id="BUS-68" v="1.0295689777641914" angle="-46.24704382127757"/>
                <iidm:bus id="BUS-69" v="1.0235521841515562" angle="-46.4859767166823"/>
                <iidm:bus id="BUS-70" v="1.031756688327187" angle="-44.42680578501526"/>
            </iidm:busBreakerTopology>
        </iidm:voltageLevel>
        <iidm:twoWindingsTransformer id="TWT-68-70" r="3.4600000000000003E-6" x="2.5139000000000004E-4" g="0.0" b="0.0" ratedU1="1.0" ratedU2="1.0" bus1="BUS-68" connectableBus1="BUS-68" voltageLevelId1="VL-68" bus2="BUS-70" connectableBus2="BUS-70" voltageLevelId2="VL-68" p1="-134.28853396818118" q1="-4.979295639249856" p2="134.3474779880961" q2="9.261936438848798">
            <iidm:apparentPowerLimits1 permanentLimit="1186.0">
                <iidm:temporaryLimit name="RateB" acceptableDuration="1200" value="1186.0"/>
                <iidm:temporaryLimit name="RateC" acceptableDuration="60" value="1186.0"/>
            </iidm:apparentPowerLimits1>
            <iidm:apparentPowerLimits2 permanentLimit="1186.0">
                <iidm:temporaryLimit name="RateB" acceptableDuration="1200" value="1186.0"/>
                <iidm:temporaryLimit name="RateC" acceptableDuration="60" value="1186.0"/>
            </iidm:apparentPowerLimits2>
        </iidm:twoWindingsTransformer>
        <iidm:twoWindingsTransformer id="TWT-68-70#0" r="3.39E-6" x="2.4931E-4" g="0.0" b="0.0" ratedU1="1.0" ratedU2="1.0" bus1="BUS-68" connectableBus1="BUS-68" voltageLevelId1="VL-68" bus2="BUS-70" connectableBus2="BUS-70" voltageLevelId2="VL-68" p1="-135.40837925386944" q1="-5.043315761943121" p2="135.46709869593067" q2="9.361706352018388">
            <iidm:apparentPowerLimits1 permanentLimit="1186.0">
                <iidm:temporaryLimit name="RateB" acceptableDuration="1200" value="1186.0"/>
                <iidm:temporaryLimit name="RateC" acceptableDuration="60" value="1186.0"/>
            </iidm:apparentPowerLimits1>
            <iidm:apparentPowerLimits2 permanentLimit="1186.0">
                <iidm:temporaryLimit name="RateB" acceptableDuration="1200" value="1186.0"/>
                <iidm:temporaryLimit name="RateC" acceptableDuration="60" value="1186.0"/>
            </iidm:apparentPowerLimits2>
        </iidm:twoWindingsTransformer>
        <iidm:twoWindingsTransformer id="TWT-69-70" r="3.39E-6" x="2.4931E-4" g="0.0" b="0.0" ratedU1="1.0" ratedU2="1.0" bus1="BUS-69" connectableBus1="BUS-69" voltageLevelId1="VL-68" bus2="BUS-70" connectableBus2="BUS-70" voltageLevelId2="VL-68" p1="-152.59583531073693" q1="-28.87365990443756" p2="152.67387979365068" q2="34.61326758446589">
            <iidm:apparentPowerLimits1 permanentLimit="1186.0">
                <iidm:temporaryLimit name="RateB" acceptableDuration="1200" value="1186.0"/>
                <iidm:temporaryLimit name="RateC" acceptableDuration="60" value="1186.0"/>
            </iidm:apparentPowerLimits1>
            <iidm:apparentPowerLimits2 permanentLimit="1186.0">
                <iidm:temporaryLimit name="RateB" acceptableDuration="1200" value="1186.0"/>
                <iidm:temporaryLimit name="RateC" acceptableDuration="60" value="1186.0"/>
            </iidm:apparentPowerLimits2>
        </iidm:twoWindingsTransformer>
    </iidm:substation>
    <iidm:substation id="SUB-71">
        <iidm:voltageLevel id="VL-71" nominalV="1.0" lowVoltageLimit="1.00444" highVoltageLimit="1.08889" topologyKind="BUS_BREAKER">
            <iidm:busBreakerTopology>
                <iidm:bus id="BUS-71" v="1.0366192916090808" angle="-41.01311795262957"/>
            </iidm:busBreakerTopology>
            <iidm:load id="LOAD-71" loadType="UNDEFINED" p0="39.2" q0="2.8" bus="BUS-71" connectableBus="BUS-71" p="39.2" q="2.8"/>
        </iidm:voltageLevel>
    </iidm:substation>
    <iidm:substation id="SUB-72">
        <iidm:voltageLevel id="VL-72" nominalV="1.0" lowVoltageLimit="1.00444" highVoltageLimit="1.08889" topologyKind="BUS_BREAKER">
            <iidm:busBreakerTopology>
                <iidm:bus id="BUS-72" v="1.0356059886350575" angle="-39.98754365440579"/>
            </iidm:busBreakerTopology>
            <iidm:load id="LOAD-72" loadType="UNDEFINED" p0="19.3" q0="3.3" bus="BUS-72" connectableBus="BUS-72" p="19.3" q="3.3"/>
            <iidm:shunt id="SHUNT-72" sectionCount="1" voltageRegulatorOn="false" bus="BUS-72" connectableBus="BUS-72" p="0.0" q="85.7983810957436">
                <iidm:shuntLinearModel bPerSection="-80.0" maximumSectionCount="1"/>
            </iidm:shunt>
        </iidm:voltageLevel>
    </iidm:substation>
    <iidm:substation id="SUB-73">
        <iidm:voltageLevel id="VL-73" nominalV="1.0" lowVoltageLimit="0.977778" highVoltageLimit="1.08889" topologyKind="BUS_BREAKER">
            <iidm:busBreakerTopology>
                <iidm:bus id="BUS-73" v="1.0434692115854682" angle="-5.337833886080826"/>
                <iidm:bus id="BUS-1846" v="1.034" angle="0.5154317959154849"/>
                <iidm:bus id="BUS-1632" v="1.034" angle="0.5154317959154849"/>
            </iidm:busBreakerTopology>
            <iidm:generator id="GEN-1846" energySource="OTHER" minP="6.4" maxP="32.0" voltageRegulatorOn="true" targetP="30.0" targetV="1.034" targetQ="-1.12" bus="BUS-1846" connectableBus="BUS-1846" p="-29.998386385284032" q="1.1357577122040938">
                <iidm:minMaxReactiveLimits minQ="-8.36" maxQ="8.36"/>
            </iidm:generator>
            <iidm:generator id="GEN-1632" energySource="OTHER" minP="6.4" maxP="32.0" voltageRegulatorOn="true" targetP="30.0" targetV="1.034" targetQ="-1.12" bus="BUS-1632" connectableBus="BUS-1632" p="-29.998386385284032" q="1.1357577122040938">
                <iidm:minMaxReactiveLimits minQ="-8.36" maxQ="8.36"/>
            </iidm:generator>
        </iidm:voltageLevel>
        <iidm:twoWindingsTransformer id="TWT-73-1846" r="0.0" x="0.00366794" g="0.0" b="0.0" ratedU1="1.0" ratedU2="1.0" bus1="BUS-73" connectableBus1="BUS-73" voltageLevelId1="VL-73" bus2="BUS-1846" connectableBus2="BUS-1846" voltageLevelId2="VL-73" p1="-29.998385689060452" q1="4.227469474390679" p2="29.99838568906045" q2="-1.1357577122040938"/>
        <iidm:twoWindingsTransformer id="TWT-73-1632" r="0.0" x="0.00366794" g="0.0" b="0.0" ratedU1="1.0" ratedU2="1.0" bus1="BUS-73" connectableBus1="BUS-73" voltageLevelId1="VL-73" bus2="BUS-1632" connectableBus2="BUS-1632" voltageLevelId2="VL-73" p1="-29.998385689060452" q1="4.227469474390679" p2="29.99838568906045" q2="-1.1357577122040938"/>
    </iidm:substation>
    <iidm:substation id="SUB-74">
        <iidm:voltageLevel id="VL-74" nominalV="1.0" lowVoltageLimit="0.977778" highVoltageLimit="1.08889" topologyKind="BUS_BREAKER">
            <iidm:busBreakerTopology>
                <iidm:bus id="BUS-74" v="1.043478544867573" angle="-5.3371509260663546"/>
                <iidm:bus id="BUS-1847" v="1.034" angle="0.5160622191648442"/>
                <iidm:bus id="BUS-1848" v="1.034" angle="0.5160622191648442"/>
            </iidm:busBreakerTopology>
            <iidm:generator id="GEN-1847" energySource="OTHER" minP="6.4" maxP="32.0" voltageRegulatorOn="true" targetP="30.0" targetV="1.034" targetQ="-1.06" bus="BUS-1847" connectableBus="BUS-1847" p="-29.998386385284032" q="1.1384025733484724">
                <iidm:minMaxReactiveLimits minQ="-8.57" maxQ="8.15"/>
            </iidm:generator>
            <iidm:generator id="GEN-1848" energySource="OTHER" minP="6.4" maxP="32.0" voltageRegulatorOn="true" targetP="30.0" targetV="1.034" targetQ="-1.06" bus="BUS-1848" connectableBus="BUS-1848" p="-29.998386385284032" q="1.1384025733484724">
                <iidm:minMaxReactiveLimits minQ="-8.57" maxQ="8.15"/>
            </iidm:generator>
        </iidm:voltageLevel>
        <iidm:twoWindingsTransformer id="TWT-74-1847" r="0.0" x="0.00366794" g="0.0" b="0.0" ratedU1="1.0" ratedU2="1.0" bus1="BUS-74" connectableBus1="BUS-74" voltageLevelId1="VL-74" bus2="BUS-1847" connectableBus2="BUS-1847" voltageLevelId2="VL-74" p1="-29.998385689229178" q1="4.230134970599231" p2="29.998385689229178" q2="-1.1384025733484724"/>
        <iidm:twoWindingsTransformer id="TWT-74-1848" r="0.0" x="0.00366794" g="0.0" b="0.0" ratedU1="1.0" ratedU2="1.0" bus1="BUS-74" connectableBus1="BUS-74" voltageLevelId1="VL-74" bus2="BUS-1848" connectableBus2="BUS-1848" voltageLevelId2="VL-74" p1="-29.998385689229178" q1="4.230134970599231" p2="29.998385689229178" q2="-1.1384025733484724"/>
    </iidm:substation>
    <iidm:substation id="SUB-75">
        <iidm:voltageLevel id="VL-75" nominalV="1.0" lowVoltageLimit="1.00889" highVoltageLimit="1.08444" topologyKind="BUS_BREAKER">
            <iidm:busBreakerTopology>
                <iidm:bus id="BUS-75" v="1.0417705416020808" angle="-5.819378952549819"/>
            </iidm:busBreakerTopology>
            <iidm:load id="LOAD-75" loadType="UNDEFINED" p0="131.9" q0="3.2" bus="BUS-75" connectableBus="BUS-75" p="131.9" q="3.2"/>
        </iidm:voltageLevel>
    </iidm:substation>
    <iidm:substation id="SUB-76">
        <iidm:voltageLevel id="VL-76" nominalV="1.0" lowVoltageLimit="1.04211" highVoltageLimit="1.08444" topologyKind="BUS_BREAKER">
            <iidm:busBreakerTopology>
                <iidm:bus id="BUS-76" v="1.051361056152829" angle="-21.554938570159297"/>
                <iidm:bus id="BUS-77" v="1.0479808105377932" angle="-16.655337808989717"/>
            </iidm:busBreakerTopology>
        </iidm:voltageLevel>
        <iidm:twoWindingsTransformer id="TWT-76-77" r="8.03E-6" x="4.2451999999999995E-4" g="0.0" b="0.0" ratedU1="0.996016" ratedU2="1.0" bus1="BUS-76" connectableBus1="BUS-76" voltageLevelId1="VL-76" bus2="BUS-77" connectableBus2="BUS-77" voltageLevelId2="VL-76" p1="-221.94485841879188" q1="32.581667038836045" p2="222.30751402990364" q2="-13.409243622998467">
            <iidm:apparentPowerLimits1 permanentLimit="600.0">
                <iidm:temporaryLimit name="RateB" acceptableDuration="1200" value="600.0"/>
                <iidm:temporaryLimit name="RateC" acceptableDuration="60" value="600.0"/>
            </iidm:apparentPowerLimits1>
            <iidm:apparentPowerLimits2 permanentLimit="600.0">
                <iidm:temporaryLimit name="RateB" acceptableDuration="1200" value="600.0"/>
                <iidm:temporaryLimit name="RateC" acceptableDuration="60" value="600.0"/>
            </iidm:apparentPowerLimits2>
        </iidm:twoWindingsTransformer>
    </iidm:substation>
    <iidm:substation id="SUB-78">
        <iidm:voltageLevel id="VL-78" nominalV="1.0" lowVoltageLimit="1.00444" highVoltageLimit="1.08444" topologyKind="BUS_BREAKER">
            <iidm:busBreakerTopology>
                <iidm:bus id="BUS-78" v="1.0512711142438689" angle="-21.604228687833416"/>
            </iidm:busBreakerTopology>
            <iidm:load id="LOAD-78" loadType="UNDEFINED" p0="94.6" q0="-1.9" bus="BUS-78" connectableBus="BUS-78" p="94.6" q="-1.9"/>
        </iidm:voltageLevel>
    </iidm:substation>
    <iidm:substation id="SUB-79">
        <iidm:voltageLevel id="VL-79" nominalV="1.0" lowVoltageLimit="1.00444" highVoltageLimit="1.08936" topologyKind="BUS_BREAKER">
            <iidm:busBreakerTopology>
                <iidm:bus id="BUS-79" v="1.0233188582809445" angle="-40.222727577129135"/>
            </iidm:busBreakerTopology>
            <iidm:load id="LOAD-79" loadType="UNDEFINED" p0="-1.7" q0="-4.6" bus="BUS-79" connectableBus="BUS-79" p="-1.7000000000000002" q="-4.6"/>
        </iidm:voltageLevel>
    </iidm:substation>
    <iidm:substation id="SUB-80">
        <iidm:voltageLevel id="VL-80" nominalV="1.0" lowVoltageLimit="1.00444" highVoltageLimit="1.08936" topologyKind="BUS_BREAKER">
            <iidm:busBreakerTopology>
                <iidm:bus id="BUS-80" v="1.0233190940540773" angle="-40.22681650149956"/>
            </iidm:busBreakerTopology>
            <iidm:load id="LOAD-80" loadType="UNDEFINED" p0="3.6" q0="-7.2" bus="BUS-80" connectableBus="BUS-80" p="3.6000000000000005" q="-7.2"/>
        </iidm:voltageLevel>
    </iidm:substation>
...